<?xml version="1.0" encoding="UTF-8"?>

<!-- generated on 07/15/19 21:56:14 by Eclipse SUMO netedit Version 1.2.0
<configuration xmlns:xsi="http://www.w3.org/2001/XMLSchema-instance" xsi:noNamespaceSchemaLocation="http://sumo.dlr.de/xsd/netconvertConfiguration.xsd">

    <input>
        <sumo-net-file value="C:\Users\shariz-pc\Desktop\project%20update%2011th%20July\maps\kt2.net.xml"/>
    </input>

    <output>
        <output-file value="C:\Users\shariz-pc\Desktop\project%20update%2011th%20July\maps\kt2.net.xml"/>
        <output.street-names value="true"/>
    </output>

    <processing>
        <geometry.max-grade.fix value="false"/>
        <offset.disable-normalization value="true"/>
        <lefthand value="false"/>
    </processing>

    <junctions>
        <no-turnarounds value="true"/>
        <junctions.corner-detail value="5"/>
        <junctions.limit-turn-speed value="5.5"/>
        <rectangular-lane-cut value="false"/>
    </junctions>

    <pedestrian>
        <walkingareas value="false"/>
    </pedestrian>

</configuration>
-->

<net version="1.1" junctionCornerDetail="5" limitTurnSpeed="5.50" xmlns:xsi="http://www.w3.org/2001/XMLSchema-instance" xsi:noNamespaceSchemaLocation="http://sumo.dlr.de/xsd/net_file.xsd">

    <location netOffset="-291867.00,-587728.92" convBoundary="1799.41,1617.63,2979.56,2521.30" origBoundary="103.121873,5.314356,103.154001,5.345864" projParameter="+proj=utm +zone=48 +ellps=WGS84 +datum=WGS84 +units=m +no_defs"/>

    <type id="highway.bridleway" priority="1" numLanes="1" speed="2.78" allow="pedestrian" oneway="1" width="2.00"/>
    <type id="highway.bus_guideway" priority="1" numLanes="1" speed="27.78" allow="bus" oneway="1"/>
    <type id="highway.cycleway" priority="1" numLanes="1" speed="8.33" allow="bicycle" oneway="0" width="1.00"/>
    <type id="highway.footway" priority="1" numLanes="1" speed="2.78" allow="pedestrian" oneway="1" width="2.00"/>
    <type id="highway.ford" priority="1" numLanes="1" speed="2.78" allow="army" oneway="0"/>
    <type id="highway.living_street" priority="3" numLanes="1" speed="2.78" disallow="tram rail_urban rail rail_electric ship" oneway="0"/>
    <type id="highway.motorway" priority="13" numLanes="2" speed="44.44" allow="private emergency authority army vip passenger hov taxi bus coach delivery truck trailer motorcycle evehicle custom1 custom2" oneway="1"/>
    <type id="highway.motorway_link" priority="12" numLanes="1" speed="22.22" allow="private emergency authority army vip passenger hov taxi bus coach delivery truck trailer motorcycle evehicle custom1 custom2" oneway="1"/>
    <type id="highway.path" priority="1" numLanes="1" speed="2.78" allow="bicycle pedestrian" oneway="1" width="2.00"/>
    <type id="highway.pedestrian" priority="1" numLanes="1" speed="2.78" allow="pedestrian" oneway="1" width="2.00"/>
    <type id="highway.primary" priority="9" numLanes="2" speed="27.78" disallow="tram rail_urban rail rail_electric ship" oneway="0"/>
    <type id="highway.primary_link" priority="8" numLanes="1" speed="22.22" disallow="tram rail_urban rail rail_electric ship" oneway="0"/>
    <type id="highway.raceway" priority="14" numLanes="2" speed="83.33" allow="vip" oneway="0"/>
    <type id="highway.residential" priority="4" numLanes="1" speed="13.89" disallow="tram rail_urban rail rail_electric ship" oneway="0"/>
    <type id="highway.secondary" priority="7" numLanes="2" speed="27.78" disallow="tram rail_urban rail rail_electric ship" oneway="0"/>
    <type id="highway.secondary_link" priority="6" numLanes="1" speed="22.22" disallow="tram rail_urban rail rail_electric ship" oneway="0"/>
    <type id="highway.service" priority="2" numLanes="1" speed="5.56" allow="delivery bicycle pedestrian" oneway="0"/>
    <type id="highway.stairs" priority="1" numLanes="1" speed="1.39" allow="pedestrian" oneway="1" width="2.00"/>
    <type id="highway.step" priority="1" numLanes="1" speed="1.39" allow="pedestrian" oneway="1" width="2.00"/>
    <type id="highway.steps" priority="1" numLanes="1" speed="1.39" allow="pedestrian" oneway="1" width="2.00"/>
    <type id="highway.tertiary" priority="6" numLanes="1" speed="22.22" disallow="tram rail_urban rail rail_electric ship" oneway="0"/>
    <type id="highway.tertiary_link" priority="5" numLanes="1" speed="22.22" disallow="tram rail_urban rail rail_electric ship" oneway="0"/>
    <type id="highway.track" priority="1" numLanes="1" speed="5.56" disallow="tram rail_urban rail rail_electric ship" oneway="0"/>
    <type id="highway.trunk" priority="11" numLanes="2" speed="27.78" disallow="tram rail_urban rail rail_electric bicycle pedestrian ship" oneway="0"/>
    <type id="highway.trunk_link" priority="10" numLanes="1" speed="22.22" disallow="tram rail_urban rail rail_electric bicycle pedestrian ship" oneway="0"/>
    <type id="highway.unclassified" priority="5" numLanes="1" speed="13.89" disallow="tram rail_urban rail rail_electric ship" oneway="0"/>
    <type id="highway.unsurfaced" priority="1" numLanes="1" speed="8.33" disallow="tram rail_urban rail rail_electric ship" oneway="0"/>
    <type id="railway.light_rail" priority="15" numLanes="1" speed="27.78" allow="rail_urban" oneway="1"/>
    <type id="railway.preserved" priority="15" numLanes="1" speed="27.78" allow="rail" oneway="1"/>
    <type id="railway.rail" priority="15" numLanes="1" speed="83.33" allow="rail rail_electric" oneway="1"/>
    <type id="railway.subway" priority="15" numLanes="1" speed="27.78" allow="rail_urban" oneway="1"/>
    <type id="railway.tram" priority="15" numLanes="1" speed="13.89" allow="tram" oneway="1"/>

    <edge id=":j10_0" function="internal">
        <lane id=":j10_0_0" index="0" speed="6.41" length="9.04" shape="2142.20,2463.39 2144.55,2462.57 2146.03,2461.19 2146.66,2459.26 2146.42,2456.78"/>
    </edge>
    <edge id=":j10_1" function="internal">
        <lane id=":j10_1_0" index="0" speed="13.89" length="11.19" shape="2142.20,2463.39 2153.18,2461.26"/>
    </edge>
    <edge id=":j11_0" function="internal">
        <lane id=":j11_0_0" index="0" speed="13.89" length="11.10" shape="2131.13,2393.84 2129.07,2382.94"/>
    </edge>
    <edge id=":j11_1" function="internal">
        <lane id=":j11_1_0" index="0" disallow="tram rail_urban rail rail_electric ship" speed="6.15" length="8.87" shape="2131.13,2393.84 2130.90,2391.37 2131.55,2389.53 2133.08,2388.32 2135.50,2387.75"/>
    </edge>
    <edge id=":j11_2" function="internal">
        <lane id=":j11_2_0" index="0" speed="6.56" length="9.00" shape="2124.51,2389.44 2126.83,2388.65 2128.36,2387.30 2129.11,2385.40 2129.07,2382.94"/>
    </edge>
    <edge id=":j11_3" function="internal">
        <lane id=":j11_3_0" index="0" disallow="tram rail_urban rail rail_electric ship" speed="13.89" length="11.13" shape="2124.51,2389.44 2127.60,2388.85 2129.98,2388.41 2132.37,2388.07 2135.50,2387.75"/>
    </edge>
    <edge id=":j12_0" function="internal">
        <lane id=":j12_0_0" index="0" disallow="tram rail_urban rail rail_electric ship" speed="18.06" length="15.72" shape="2111.54,2273.72 2110.67,2269.97 2109.39,2266.19 2107.91,2262.46 2106.42,2258.89"/>
    </edge>
    <edge id=":j12_1" function="internal">
        <lane id=":j12_1_0" index="0" disallow="tram rail_urban rail rail_electric ship" speed="6.17" length="9.05" shape="2102.89,2265.61 2105.27,2264.72 2106.65,2263.30 2107.04,2261.36 2106.42,2258.89"/>
    </edge>
    <edge id=":j13_0" function="internal">
        <lane id=":j13_0_0" index="0" speed="5.03" length="5.44" shape="2061.46,2148.51 2061.14,2147.11 2061.41,2145.97 2062.29,2145.10 2063.76,2144.49"/>
    </edge>
    <edge id=":j13_1" function="internal">
        <lane id=":j13_1_0" index="0" speed="20.84" length="6.40" shape="2057.42,2145.11 2059.32,2145.08 2060.63,2145.06 2061.92,2144.92 2063.76,2144.49"/>
    </edge>
    <edge id=":j14_0" function="internal">
        <lane id=":j14_0_0" index="0" disallow="tram rail_urban rail rail_electric ship" speed="6.51" length="9.03" shape="2294.69,2434.80 2297.03,2434.00 2298.56,2432.65 2299.27,2430.74 2299.17,2428.26"/>
    </edge>
    <edge id=":j14_1" function="internal">
        <lane id=":j14_1_0" index="0" speed="13.89" length="11.26" shape="2294.69,2434.80 2305.72,2432.54"/>
    </edge>
    <edge id=":j15_0" function="internal">
        <lane id=":j15_0_0" index="0" disallow="tram rail_urban rail rail_electric ship" speed="22.22" length="10.96" shape="2291.42,2379.32 2290.98,2376.23 2290.74,2373.88 2290.60,2371.52 2290.44,2368.41"/>
    </edge>
    <edge id=":j15_1" function="internal">
        <lane id=":j15_1_0" index="0" disallow="tram rail_urban rail rail_electric ship" speed="6.54" length="8.90" shape="2285.23,2374.30 2287.62,2373.75 2289.28,2372.58 2290.22,2370.80 2290.44,2368.41"/>
    </edge>
    <edge id=":j16_0" function="internal">
        <lane id=":j16_0_0" index="0" disallow="tram rail_urban rail rail_electric ship" speed="22.22" length="8.62" shape="2287.60,2315.88 2287.31,2307.27"/>
    </edge>
    <edge id=":j16_1" function="internal">
        <lane id=":j16_1_0" index="0" speed="11.46" length="8.60" shape="2287.60,2315.88 2287.74,2313.44 2288.42,2311.86 2289.57,2310.40 2291.11,2308.34"/>
    </edge>
    <edge id=":j18_0" function="internal">
        <lane id=":j18_0_0" index="0" disallow="tram rail_urban rail rail_electric ship" speed="7.51" length="7.57" shape="2268.20,2197.44 2268.17,2194.94 2269.34,2192.79 2271.43,2191.21"/>
    </edge>
    <edge id=":j18_2" function="internal">
        <lane id=":j18_2_0" index="0" disallow="tram rail_urban rail rail_electric ship" speed="7.51" length="4.23" shape="2271.43,2191.21 2271.72,2190.99 2275.30,2189.55"/>
    </edge>
    <edge id=":j18_1" function="internal">
        <lane id=":j18_1_0" index="0" disallow="tram rail_urban rail rail_electric ship" speed="6.47" length="9.03" shape="2268.37,2185.77 2269.38,2188.03 2270.88,2189.42 2272.85,2189.92 2275.30,2189.55"/>
    </edge>
    <edge id=":j19_0" function="internal">
        <lane id=":j19_0_0" index="0" speed="12.48" length="6.58" shape="2238.89,2097.14 2240.70,2096.51 2241.81,2095.78 2242.77,2094.79 2244.13,2093.38"/>
    </edge>
    <edge id=":j19_1" function="internal">
        <lane id=":j19_1_0" index="0" disallow="tram rail_urban rail rail_electric ship" speed="5.33" length="5.66" shape="2238.89,2097.14 2240.59,2096.88 2241.93,2097.12 2242.90,2097.85 2243.50,2099.08"/>
    </edge>
    <edge id=":j2_0" function="internal">
        <lane id=":j2_0_0" index="0" speed="13.89" length="11.09" shape="1826.93,2331.61 1824.52,2320.78"/>
    </edge>
    <edge id=":j2_1" function="internal">
        <lane id=":j2_1_0" index="0" disallow="tram rail_urban rail rail_electric ship" speed="6.52" length="8.98" shape="1826.93,2331.61 1826.78,2329.15 1827.44,2327.22 1828.92,2325.83 1831.21,2324.97"/>
    </edge>
    <edge id=":j20_0" function="internal">
        <lane id=":j20_0_0" index="0" speed="13.89" length="7.77" shape="2386.62,2155.79 2388.85,2155.17 2390.38,2154.76 2391.88,2154.27 2393.99,2153.36"/>
    </edge>
    <edge id=":j20_1" function="internal">
        <lane id=":j20_1_0" index="0" speed="12.16" length="7.72" shape="2389.04,2159.02 2390.20,2157.03 2391.01,2155.60 2392.07,2154.47 2393.99,2153.36"/>
    </edge>
    <edge id=":j21_0" function="internal">
        <lane id=":j21_0_0" index="0" speed="13.89" length="0.86" shape="2595.39,2364.00 2595.64,2363.94 2595.80,2363.88 2595.94,2363.77 2596.13,2363.60"/>
    </edge>
    <edge id=":j22_0" function="internal">
        <lane id=":j22_0_0" index="0" disallow="tram rail_urban rail rail_electric ship" speed="13.89" length="0.61" shape="2600.69,2057.93 2600.85,2057.85 2600.96,2057.78 2601.05,2057.70 2601.18,2057.57"/>
    </edge>
    <edge id=":j23_0" function="internal">
        <lane id=":j23_0_0" index="0" speed="13.89" length="0.97" shape="2924.09,2047.70 2924.29,2047.49 2924.41,2047.33 2924.48,2047.15 2924.54,2046.87"/>
    </edge>
    <edge id=":j24_0" function="internal">
        <lane id=":j24_0_0" index="0" disallow="tram rail_urban rail rail_electric ship" speed="7.05" length="8.18" shape="2710.95,1941.26 2712.01,1939.68 2712.41,1937.88 2712.14,1935.87 2711.20,1933.65"/>
    </edge>
    <edge id=":j24_1" function="internal">
        <lane id=":j24_1_0" index="0" speed="13.89" length="9.46" shape="2710.95,1941.26 2712.87,1939.22 2714.15,1937.79 2715.34,1936.27 2716.98,1934.00"/>
    </edge>
    <edge id=":j25_0" function="internal">
        <lane id=":j25_0_0" index="0" speed="5.95" length="5.35" shape="2598.30,1757.88 2597.63,1756.58 2597.40,1755.32 2597.59,1754.09 2598.22,1752.88"/>
    </edge>
    <edge id=":j25_1" function="internal">
        <lane id=":j25_1_0" index="0" speed="13.89" length="6.25" shape="2593.95,1757.41 2595.31,1756.15 2596.25,1755.29 2597.11,1754.36 2598.22,1752.88"/>
    </edge>
    <edge id=":j26_0" function="internal">
        <lane id=":j26_0_0" index="0" speed="3.90" length="2.64" shape="2694.70,1616.70 2695.20,1616.18 2695.75,1615.94 2696.34,1616.00 2696.98,1616.35"/>
    </edge>
    <edge id=":j27_0" function="internal">
        <lane id=":j27_0_0" index="0" speed="13.89" length="6.19" shape="2854.42,1735.71 2855.86,1736.86 2856.85,1737.66 2857.92,1738.32 2859.60,1739.04"/>
    </edge>
    <edge id=":j27_1" function="internal">
        <lane id=":j27_1_0" index="0" speed="5.56" length="1.53" shape="2855.03,1740.12 2855.91,1739.22 2856.15,1739.11"/>
    </edge>
    <edge id=":j27_2" function="internal">
        <lane id=":j27_2_0" index="0" speed="5.56" length="3.57" shape="2856.15,1739.11 2856.96,1738.74 2858.19,1738.68 2859.60,1739.04"/>
    </edge>
    <edge id=":j3_0" function="internal">
        <lane id=":j3_0_0" index="0" disallow="tram rail_urban rail rail_electric ship" speed="3.92" length="2.34" shape="1798.22,2207.84 1798.16,2207.22 1798.31,2206.70 1798.66,2206.29 1799.21,2205.98"/>
    </edge>
    <edge id=":j4_0" function="internal">
        <lane id=":j4_0_0" index="0" speed="6.93" length="10.33" shape="1950.31,2503.02 1952.60,2502.06 1954.01,2500.37 1954.56,2497.95 1954.24,2494.80"/>
    </edge>
    <edge id=":j4_1" function="internal">
        <lane id=":j4_1_0" index="0" speed="18.06" length="11.26" shape="1950.31,2503.02 1953.33,2502.10 1955.57,2501.05 1957.82,2500.01 1960.85,2499.15"/>
    </edge>
    <edge id=":j5_0" function="internal">
        <lane id=":j5_0_0" index="0" speed="13.89" length="11.24" shape="1927.79,2371.15 1925.62,2360.12"/>
    </edge>
    <edge id=":j5_1" function="internal">
        <lane id=":j5_1_0" index="0" disallow="tram rail_urban rail rail_electric ship" speed="6.38" length="9.04" shape="1927.79,2371.15 1927.62,2368.66 1928.31,2366.75 1929.84,2365.44 1932.23,2364.71"/>
    </edge>
    <edge id=":j6_0" function="internal">
        <lane id=":j6_0_0" index="0" speed="13.89" length="10.98" shape="1916.54,2311.91 1914.61,2301.10"/>
    </edge>
    <edge id=":j6_1" function="internal">
        <lane id=":j6_1_0" index="0" disallow="tram rail_urban rail rail_electric ship" speed="6.54" length="8.94" shape="1916.54,2311.91 1916.44,2309.48 1917.13,2307.58 1918.63,2306.20 1920.93,2305.35"/>
    </edge>
    <edge id=":j6_2" function="internal">
        <lane id=":j6_2_0" index="0" speed="6.59" length="8.98" shape="1910.18,2307.70 1912.47,2306.85 1913.97,2305.46 1914.68,2303.55 1914.61,2301.10"/>
    </edge>
    <edge id=":j6_3" function="internal">
        <lane id=":j6_3_0" index="0" disallow="tram rail_urban rail rail_electric ship" speed="13.89" length="11.00" shape="1910.18,2307.70 1920.93,2305.35"/>
    </edge>
    <edge id=":j7_0" function="internal">
        <lane id=":j7_0_0" index="0" disallow="tram rail_urban rail rail_electric ship" speed="8.81" length="16.35" shape="1892.92,2176.68 1892.57,2171.62 1893.46,2167.71 1895.61,2164.94 1899.01,2163.32"/>
    </edge>
    <edge id=":j7_1" function="internal">
        <lane id=":j7_1_0" index="0" disallow="tram rail_urban rail rail_electric ship" speed="20.84" length="15.87" shape="1886.70,2173.12 1889.92,2171.03 1892.80,2168.03 1895.70,2165.14 1899.01,2163.32"/>
    </edge>
    <edge id=":j8_0" function="internal">
        <lane id=":j8_0_0" index="0" disallow="tram rail_urban rail rail_electric ship" speed="3.91" length="2.47" shape="2028.68,2349.92 2029.35,2349.91 2029.87,2350.12 2030.25,2350.53 2030.48,2351.16"/>
    </edge>
    <edge id=":j9_0" function="internal">
        <lane id=":j9_0_0" index="0" disallow="tram rail_urban rail rail_electric ship" speed="3.91" length="2.53" shape="2041.80,2403.59 2042.04,2404.24 2042.43,2404.66 2042.97,2404.86 2043.66,2404.82"/>
    </edge>

    <edge id="e1" from="j1" to="j4" priority="6" type="highway.tertiary" spreadType="center">
        <lane id="e1_0" index="0" disallow="tram rail_urban rail rail_electric ship" speed="22.22" length="83.43" shape="1868.84,2520.97 1950.31,2503.02">
            <param key="origId" value="361253014"/>
        </lane>
    </edge>
    <edge id="e2" from="j1" to="j2" priority="-1">
        <lane id="e2_0" index="0" speed="13.89" length="190.84" shape="1865.16,2518.58 1826.93,2331.61"/>
    </edge>
    <edge id="e3" from="j2" to="j6" priority="5" type="highway.unclassified">
        <lane id="e3_0" index="0" disallow="tram rail_urban rail rail_electric ship" speed="13.89" length="80.83" shape="1831.21,2324.97 1910.18,2307.70">
            <param key="origId" value="42707520"/>
        </lane>
    </edge>
    <edge id="e4" from="j2" to="j3" priority="-1">
        <lane id="e4_0" index="0" speed="13.89" length="115.96" shape="1824.52,2320.78 1798.22,2207.84"/>
    </edge>
    <edge id="e5" from="j3" to="j7" priority="5" type="highway.unclassified" spreadType="center" shape="1799.41,2205.91 1890.22,2171.80">
        <lane id="e5_0" index="0" disallow="tram rail_urban rail rail_electric ship" speed="13.89" length="93.46" shape="1799.21,2205.98 1886.70,2173.12">
            <param key="origId" value="604896976"/>
        </lane>
    </edge>
    <edge id="e6" from="j4" to="j5" priority="-1">
        <lane id="e6_0" index="0" speed="13.89" length="126.45" shape="1954.24,2494.80 1927.79,2371.15"/>
    </edge>
    <edge id="e7" from="j5" to="j6" priority="-1">
        <lane id="e7_0" index="0" speed="13.89" length="49.05" shape="1925.62,2360.12 1916.54,2311.91"/>
    </edge>
    <edge id="e8" from="j6" to="j7" priority="-1">
        <lane id="e8_0" index="0" speed="13.89" length="126.30" shape="1914.61,2301.10 1892.92,2176.68"/>
    </edge>
    <edge id="e12" from="j4" to="j10" priority="-1">
        <lane id="e12_0" index="0" speed="13.89" length="184.84" shape="1960.85,2499.15 2142.20,2463.39"/>
    </edge>
    <edge id="e13" from="j5" to="j8" priority="4" type="highway.residential">
        <lane id="e13_0" index="0" disallow="tram rail_urban rail rail_electric ship" speed="13.89" length="97.57" shape="1932.23,2364.71 2028.68,2349.92">
            <param key="origId" value="354224159"/>
        </lane>
    </edge>
    <edge id="e14" from="j8" to="j9" priority="4" type="highway.residential">
        <lane id="e14_0" index="0" disallow="tram rail_urban rail rail_electric ship" speed="13.89" length="53.63" shape="2030.48,2351.16 2041.80,2403.59">
            <param key="origId" value="627147363"/>
        </lane>
    </edge>
    <edge id="e15" from="j9" to="j11" priority="4" type="highway.residential">
        <lane id="e15_0" index="0" disallow="tram rail_urban rail rail_electric ship" speed="13.89" length="82.30" shape="2043.66,2404.82 2124.51,2389.44">
            <param key="origId" value="627147362"/>
        </lane>
    </edge>
    <edge id="e16" from="j6" to="j12" priority="5" type="highway.unclassified" shape="1917.39,2307.76 2110.85,2265.51">
        <lane id="e16_0" index="0" disallow="tram rail_urban rail rail_electric ship" speed="13.89" length="186.25" shape="1920.93,2305.35 2102.89,2265.61">
            <param key="origId" value="354224144"/>
        </lane>
    </edge>
    <edge id="e17" from="j7" to="j13" name="Jalan Sultan Sulaiman" priority="7" type="highway.secondary" shape="1899.41,2164.87 1933.55,2155.99 1981.02,2149.60 2062.38,2146.52">
        <lane id="e17_0" index="0" disallow="tram rail_urban rail rail_electric ship" speed="27.78" length="160.03" shape="1899.01,2163.32 1933.24,2154.42 1980.88,2148.00 2057.42,2145.11">
            <param key="origId" value="42476394"/>
        </lane>
    </edge>
    <edge id="e18" from="j10" to="j11" priority="-1">
        <lane id="e18_0" index="0" speed="13.89" length="64.77" shape="2146.42,2456.78 2131.13,2393.84"/>
    </edge>
    <edge id="e19" from="j11" to="j12" priority="-1">
        <lane id="e19_0" index="0" speed="13.89" length="110.62" shape="2129.07,2382.94 2111.54,2273.72"/>
    </edge>
    <edge id="e20" from="j12" to="j13" priority="6" type="highway.tertiary" shape="2110.85,2265.51 2062.38,2146.52">
        <lane id="e20_0" index="0" disallow="tram rail_urban rail rail_electric ship" speed="22.22" length="119.18" shape="2106.42,2258.89 2061.46,2148.51">
            <param key="origId" value="354224176"/>
        </lane>
    </edge>
    <edge id="e21" from="j10" to="j14" priority="-1">
        <lane id="e21_0" index="0" speed="13.89" length="143.97" shape="2153.18,2461.26 2294.69,2434.80"/>
    </edge>
    <edge id="e22" from="j11" to="j15" priority="4" type="highway.residential">
        <lane id="e22_0" index="0" disallow="tram rail_urban rail rail_electric ship" speed="13.89" length="150.33" shape="2135.50,2387.75 2285.23,2374.30">
            <param key="origId" value="417177918"/>
        </lane>
    </edge>
    <edge id="e23" from="j13" to="j19" priority="-1">
        <lane id="e23_0" index="0" speed="13.89" length="181.42" shape="2063.76,2144.49 2238.89,2097.14"/>
    </edge>
    <edge id="e24" from="j14" to="j15" priority="6" type="highway.tertiary" shape="2302.05,2435.05 2299.61,2421.87 2292.41,2375.26">
        <lane id="e24_0" index="0" disallow="tram rail_urban rail rail_electric ship" speed="22.22" length="49.56" shape="2299.17,2428.26 2298.03,2422.14 2291.42,2379.32">
            <param key="origId" value="417177926"/>
        </lane>
    </edge>
    <edge id="e25" from="j15" to="j16" priority="6" type="highway.tertiary">
        <lane id="e25_0" index="0" disallow="tram rail_urban rail rail_electric ship" speed="22.22" length="52.60" shape="2290.44,2368.41 2287.60,2315.88">
            <param key="origId" value="417177926"/>
        </lane>
    </edge>
    <edge id="e26" from="j16" to="j18" priority="6" type="highway.tertiary" shape="2289.12,2314.30 2288.07,2279.03 2281.41,2246.05 2268.83,2193.18">
        <lane id="e26_0" index="0" disallow="tram rail_urban rail rail_electric ship" speed="22.22" length="111.87" shape="2287.31,2307.27 2286.47,2279.21 2279.85,2246.39 2268.20,2197.44">
            <param key="origId" value="417177926"/>
        </lane>
    </edge>
    <edge id="e28" from="j19" to="j18" priority="6" type="highway.tertiary">
        <lane id="e28_0" index="0" disallow="tram rail_urban rail rail_electric ship" speed="22.22" length="90.19" shape="2243.50,2099.08 2268.37,2185.77">
            <param key="origId" value="417177926"/>
        </lane>
    </edge>
    <edge id="e32" from="j14" to="j21" priority="-1">
        <lane id="e32_0" index="0" speed="13.89" length="297.67" shape="2305.72,2432.54 2595.39,2364.00"/>
    </edge>
    <edge id="e33" from="j16" to="j20" priority="-1">
        <lane id="e33_0" index="0" speed="13.89" length="178.57" shape="2291.11,2308.34 2389.04,2159.02"/>
    </edge>
    <edge id="e34" from="j18" to="j20" priority="4" type="highway.residential">
        <lane id="e34_0" index="0" disallow="tram rail_urban rail rail_electric ship" speed="13.89" length="116.33" shape="2275.30,2189.55 2386.62,2155.79">
            <param key="origId" value="604897003"/>
        </lane>
    </edge>
    <edge id="e35" from="j19" to="j25" priority="-1">
        <lane id="e35_0" index="0" speed="13.89" length="485.02" shape="2244.13,2093.38 2593.95,1757.41"/>
    </edge>
    <edge id="e36" from="j21" to="j23" priority="-1">
        <lane id="e36_0" index="0" speed="13.89" length="455.36" shape="2596.13,2363.60 2924.09,2047.70"/>
    </edge>
    <edge id="e37" from="j20" to="j22" priority="-1">
        <lane id="e37_0" index="0" speed="13.89" length="227.66" shape="2393.99,2153.36 2600.69,2057.93"/>
    </edge>
    <edge id="e38" from="j22" to="j24" priority="4" type="highway.residential">
        <lane id="e38_0" index="0" disallow="tram rail_urban rail rail_electric ship" speed="13.89" length="159.93" shape="2601.18,2057.57 2710.95,1941.26">
            <param key="origId" value="569338135"/>
        </lane>
    </edge>
    <edge id="e39" from="j23" to="j28" priority="-1">
        <lane id="e39_0" index="0" speed="13.89" length="264.34" shape="2924.54,2046.87 2977.80,1787.95"/>
    </edge>
    <edge id="e40" from="j24" to="j27" priority="-1">
        <lane id="e40_0" index="0" speed="13.89" length="238.00" shape="2716.98,1934.00 2855.03,1740.12"/>
    </edge>
    <edge id="e41" from="j24" to="j25" priority="5" type="highway.unclassified" shape="2715.70,1938.56 2700.35,1910.41 2662.11,1840.18 2629.15,1790.73 2610.48,1773.09 2598.48,1755.28">
        <lane id="e41_0" index="0" disallow="tram rail_urban rail rail_electric ship" speed="13.89" length="209.95" shape="2711.20,1933.65 2698.94,1911.18 2660.74,1841.01 2627.92,1791.77 2609.25,1774.13 2598.30,1757.88">
            <param key="origId" value="604896999"/>
        </lane>
    </edge>
    <edge id="e42" from="j25" to="j26" priority="-1">
        <lane id="e42_0" index="0" speed="13.89" length="166.90" shape="2598.22,1752.88 2694.70,1616.70"/>
    </edge>
    <edge id="e43" from="j26" to="j27" priority="-1">
        <lane id="e43_0" index="0" speed="13.89" length="197.57" shape="2696.98,1616.35 2854.42,1735.71"/>
    </edge>
    <edge id="e44" from="j27" to="j28" priority="-1">
        <lane id="e44_0" index="0" speed="13.89" length="124.56" shape="2859.60,1739.04 2975.72,1784.12"/>
    </edge>


    <tlLogic id="4177809104" type="actuated" programID="0" offset="0">
        <phase duration="42" state="GGrr" minDur="5" maxDur="50"/>
        <phase duration="3"  state="yyrr"/>
        <phase duration="42" state="rrGG" minDur="5" maxDur="50"/>
        <phase duration="3"  state="rryy"/>
    </tlLogic>
    <tlLogic id="cluster_415566976_5738534644_5738534645" type="actuated" programID="0" offset="0">
        <phase duration="42" state="Grr" minDur="5" maxDur="50"/>
        <phase duration="3"  state="yrr"/>
        <phase duration="42" state="rGG" minDur="5" maxDur="50"/>
        <phase duration="3"  state="ryy"/>
    </tlLogic>

    <junction id="j1" type="dead_end" x="1867.35" y="2521.30" incLanes="" intLanes="" shape="1869.18,2522.53 1868.49,2519.41 1867.65,2519.43 1867.32,2519.28 1867.06,2519.04 1866.86,2518.70 1866.73,2518.26 1863.59,2518.90 1864.64,2521.37 1865.47,2522.14 1866.50,2522.59 1867.74,2522.72"/>
    <junction id="j2" type="priority" x="1827.70" y="2327.38" incLanes="e2_0" intLanes=":j2_0_0 :j2_1_0" shape="1825.36,2331.93 1828.50,2331.29 1828.48,2329.02 1828.86,2328.15 1829.50,2327.44 1830.40,2326.90 1831.55,2326.54 1830.87,2323.41 1828.61,2323.46 1827.72,2323.09 1827.01,2322.46 1826.46,2321.57 1826.08,2320.42 1822.96,2321.15">
        <request index="0" response="00" foes="00" cont="0"/>
        <request index="1" response="00" foes="00" cont="0"/>
    </junction>
    <junction id="j3" type="priority" x="1799.41" y="2205.91" incLanes="e4_0" intLanes=":j3_0_0" shape="1796.66,2208.21 1799.78,2207.48 1798.65,2204.49 1797.26,2205.34 1796.84,2205.91 1796.60,2206.58 1796.54,2207.34">
        <request index="0" response="0" foes="0" cont="0"/>
    </junction>
    <junction id="j4" type="priority" x="1957.31" y="2501.48" incLanes="e1_0" intLanes=":j4_0_0 :j4_1_0" shape="1961.16,2500.72 1960.54,2497.58 1958.28,2497.58 1957.41,2497.19 1956.70,2496.54 1956.17,2495.63 1955.81,2494.46 1952.68,2495.13 1952.90,2498.27 1952.59,2499.45 1951.99,2500.38 1951.12,2501.05 1949.97,2501.46 1950.66,2504.58 1952.95,2503.96 1954.59,2503.29 1955.90,2502.61 1957.21,2501.94 1958.86,2501.30">
        <request index="0" response="00" foes="00" cont="0"/>
        <request index="1" response="00" foes="00" cont="0"/>
    </junction>
    <junction id="j5" type="priority" x="1928.52" y="2366.90" incLanes="e6_0" intLanes=":j5_0_0 :j5_1_0" shape="1926.23,2371.48 1929.36,2370.81 1929.33,2368.57 1929.72,2367.73 1930.37,2367.07 1931.29,2366.59 1932.47,2366.29 1931.99,2363.13 1929.65,2363.04 1928.76,2362.61 1928.05,2361.94 1927.53,2361.01 1927.19,2359.82 1924.04,2360.41">
        <request index="0" response="00" foes="00" cont="0"/>
        <request index="1" response="00" foes="00" cont="0"/>
    </junction>
    <junction id="j6" type="priority" x="1917.39" y="2307.76" incLanes="e7_0 e3_0" intLanes=":j6_0_0 :j6_1_0 :j6_2_0 :j6_3_0" shape="1914.97,2312.21 1918.12,2311.62 1918.14,2309.38 1918.54,2308.51 1919.19,2307.81 1920.10,2307.28 1921.27,2306.91 1920.58,2303.79 1918.43,2303.82 1917.61,2303.46 1916.96,2302.84 1916.49,2301.96 1916.18,2300.83 1913.03,2301.38 1912.98,2303.65 1912.57,2304.52 1911.91,2305.23 1911.00,2305.77 1909.83,2306.14 1910.52,2309.26 1912.68,2309.23 1913.50,2309.59 1914.16,2310.21 1914.65,2311.08">
        <request index="0" response="1100" foes="1100" cont="0"/>
        <request index="1" response="1000" foes="1000" cont="0"/>
        <request index="2" response="0000" foes="0001" cont="0"/>
        <request index="3" response="0000" foes="0011" cont="0"/>
    </junction>