<routes>
    <vType id="car" vclass="passenger" length="5" accel="3.5" decel="2.2" sigma="1.0" maxSpeed="10"/>

    <route id="route0" edges="e1 e12 e21 e24 e25 e33 e37 e38 e40"/>
    <route id="route1" edges="e1 e6 e13 e14 e15 e22 e25 e33 e37 e38 e40"/>
    <route id="route2" edges="e1 e6 e7 e8 e17"/>

    <flow id="carflow" type="car" beg="0" end="0" number="5" from="e1" to="e40"/>
    <!--<flow id="carflow2" type="car" beg="0" end="0" number="5" from="e1" to="e17"/>-->

    <!--<vehicle id="v2" type="car" route="route1" depart="70"/>-->


    <vehicle id="v1" type="car" route="route0" depart="0">
        <stop lane="e12_0" duration="200"/>
    </vehicle>

    <vehicle id="v2" type="car" route="route1" depart="70"/>
    <!--<vehicle id="v1.0" type="car" route="route2" depart="0">
        <stop lane="e6_0" duration="200"/>
    </vehicle>-->

</routes>
