<?xml version="1.0" encoding="UTF-8"?>

<!-- generated on 07/02/19 12:35:22 by Eclipse SUMO netedit Version 1.2.0
<configuration xmlns:xsi="http://www.w3.org/2001/XMLSchema-instance" xsi:noNamespaceSchemaLocation="http://sumo.dlr.de/xsd/netconvertConfiguration.xsd">

    <input>
        <sumo-net-file value="C:\Users\shariz-pc\Desktop\project%2012th%20June\maps\test.net.xml"/>
    </input>

    <output>
        <output-file value="C:\Users\shariz-pc\Desktop\project%2012th%20June\maps\test.net.xml"/>
    </output>

    <processing>
        <geometry.max-grade.fix value="false"/>
        <offset.disable-normalization value="true"/>
        <lefthand value="false"/>
    </processing>

    <junctions>
        <no-turnarounds value="true"/>
        <junctions.corner-detail value="5"/>
        <junctions.limit-turn-speed value="5.5"/>
        <rectangular-lane-cut value="false"/>
    </junctions>

    <pedestrian>
        <walkingareas value="false"/>
    </pedestrian>

</configuration>
-->

<net version="1.1" junctionCornerDetail="5" limitTurnSpeed="5.50" xmlns:xsi="http://www.w3.org/2001/XMLSchema-instance" xsi:noNamespaceSchemaLocation="http://sumo.dlr.de/xsd/net_file.xsd">

    <location netOffset="0.00,0.00" convBoundary="-7.90,-43.32,174.55,75.14" origBoundary="-10000000000.00,-10000000000.00,10000000000.00,10000000000.00" projParameter="!"/>

    <edge id=":J2_0" function="internal">
        <lane id=":J2_0_0" index="0" speed="3.90" length="2.60" shape="84.84,73.46 85.55,73.38 86.06,73.09 86.37,72.59 86.48,71.88"/>
    </edge>
    <edge id=":J3_0" function="internal">
        <lane id=":J3_0_0" index="0" speed="13.89" length="11.22" shape="-8.92,16.28 -9.08,5.07"/>
    </edge>
    <edge id=":J3_1" function="internal">
        <lane id=":J3_1_0" index="0" speed="6.44" length="9.03" shape="-8.92,16.28 -8.61,13.81 -7.59,12.06 -5.85,11.02 -3.38,10.70"/>
    </edge>
    <edge id=":J4_0" function="internal">
        <lane id=":J4_0_0" index="0" speed="6.55" length="9.00" shape="81.85,11.67 84.28,11.35 86.05,10.33 87.15,8.61 87.58,6.19"/>
    </edge>
    <edge id=":J4_1" function="internal">
        <lane id=":J4_1_0" index="0" speed="13.89" length="11.12" shape="81.85,11.67 92.97,11.73"/>
    </edge>
    <edge id=":J4_2" function="internal">
        <lane id=":J4_2_0" index="0" speed="13.89" length="11.07" shape="87.28,17.25 87.58,6.19"/>
    </edge>
    <edge id=":J4_3" function="internal">
        <lane id=":J4_3_0" index="0" speed="6.54" length="4.25" shape="87.28,17.25 87.67,14.85 88.63,13.31"/>
    </edge>
    <edge id=":J4_4" function="internal">
        <lane id=":J4_4_0" index="0" speed="6.54" length="4.75" shape="88.63,13.31 88.74,13.12 90.51,12.09 92.97,11.73"/>
    </edge>
    <edge id=":J5_0" function="internal">
        <lane id=":J5_0_0" index="0" speed="3.91" length="2.45" shape="-9.50,-33.54 -9.41,-34.20 -9.14,-34.69 -8.68,-35.01 -8.03,-35.15"/>
    </edge>
    <edge id=":J6_0" function="internal">
        <lane id=":J6_0_0" index="0" speed="13.89" length="10.89" shape="83.66,-42.63 94.54,-43.28"/>
    </edge>
    <edge id=":J6_1" function="internal">
        <lane id=":J6_1_0" index="0" speed="6.62" length="4.19" shape="89.04,-37.50 89.46,-39.99 90.30,-41.42"/>
    </edge>
    <edge id=":J6_2" function="internal">
        <lane id=":J6_2_0" index="0" speed="6.62" length="4.80" shape="90.30,-41.42 90.51,-41.78 92.20,-42.88 94.54,-43.28"/>
    </edge>
    <edge id=":J7_0" function="internal">
        <lane id=":J7_0_0" index="0" speed="3.90" length="2.57" shape="171.36,11.33 172.05,11.22 172.55,10.92 172.85,10.42 172.95,9.73"/>
    </edge>

    <edge id="E1" from="J1" to="J2" priority="-1">
        <lane id="E1_0" index="0" speed="13.89" length="89.59" shape="-4.73,71.19 84.84,73.46"/>
    </edge>
    <edge id="E2" from="J1" to="J3" priority="-1">
        <lane id="E2_0" index="0" speed="13.89" length="51.82" shape="-7.82,68.09 -8.92,16.28"/>
    </edge>
    <edge id="E3" from="J2" to="J4" priority="-1">
        <lane id="E3_0" index="0" speed="13.89" length="54.64" shape="86.48,71.88 87.28,17.25"/>
    </edge>
    <edge id="E4" from="J3" to="J4" priority="-1">
        <lane id="E4_0" index="0" speed="13.89" length="85.23" shape="-3.38,10.70 81.85,11.67"/>
    </edge>
    <edge id="E5" from="J3" to="J5" priority="-1">
        <lane id="E5_0" index="0" speed="13.89" length="38.61" shape="-9.08,5.07 -9.50,-33.54"/>
    </edge>
    <edge id="E6" from="J4" to="J6" priority="-1">
        <lane id="E6_0" index="0" speed="13.89" length="43.71" shape="87.58,6.19 89.04,-37.50"/>
    </edge>
    <edge id="E7" from="J5" to="J6" priority="-1">
        <lane id="E7_0" index="0" speed="13.89" length="92.00" shape="-8.03,-35.15 83.66,-42.63"/>
    </edge>
    <edge id="E8" from="J4" to="J7" priority="-1">
        <lane id="E8_0" index="0" speed="13.89" length="78.39" shape="92.97,11.73 171.36,11.33"/>
    </edge>
    <edge id="E9" from="J6" to="J8" priority="-1">
        <lane id="E9_0" index="0" speed="13.89" length="75.30" shape="94.54,-43.28 169.82,-44.82"/>
    </edge>
    <edge id="E10" from="J7" to="J8" priority="-1">
        <lane id="E10_0" index="0" speed="13.89" length="51.48" shape="172.95,9.73 172.95,-41.75"/>
    </edge>

    <junction id="J1" type="dead_end" x="-6.12" y="72.76" incLanes="" intLanes="" shape="-4.77,72.79 -4.69,69.60 -5.52,69.41 -5.82,69.19 -6.04,68.89 -6.17,68.52 -6.22,68.06 -9.42,68.13 -8.86,70.67 -8.21,71.57 -7.31,72.22 -6.16,72.63"/>
    <junction id="J2" type="priority" x="88.03" y="75.14" incLanes="E1_0" intLanes=":J2_0_0" shape="88.08,71.91 84.88,71.86 84.80,75.06 86.60,74.74 87.23,74.31 87.69,73.69 87.97,72.89">
        <request index="0" response="0" foes="0" cont="0"/>
    </junction>
    <junction id="J3" type="priority" x="-7.40" y="12.25" incLanes="E2_0" intLanes=":J3_0_0 :J3_1_0" shape="-10.51,16.32 -7.32,16.25 -6.92,14.03 -6.38,13.26 -5.61,12.71 -4.62,12.39 -3.40,12.30 -3.36,9.10 -5.63,8.63 -6.43,8.06 -7.00,7.28 -7.35,6.27 -7.48,5.05 -10.68,5.08">
        <request index="0" response="00" foes="00" cont="0"/>
        <request index="1" response="00" foes="00" cont="0"/>
    </junction>
    <junction id="J4" type="priority" x="88.94" y="13.35" incLanes="E4_0 E3_0" intLanes=":J4_0_0 :J4_1_0 :J4_2_0 :J4_4_0" shape="92.98,13.33 92.96,10.13 90.80,9.71 90.06,9.17 89.54,8.41 89.25,7.43 89.18,6.24 85.98,6.13 85.46,8.34 84.88,9.11 84.09,9.65 83.08,9.97 81.86,10.07 81.83,13.27 83.99,13.73 84.75,14.28 85.28,15.05 85.59,16.03 85.68,17.23 88.88,17.27 89.36,15.09 89.93,14.33 90.73,13.78 91.74,13.44">
        <request index="0" response="0000" foes="0100" cont="0"/>
        <request index="1" response="0000" foes="1100" cont="0"/>
        <request index="2" response="0011" foes="0011" cont="0"/>
        <request index="3" response="0010" foes="0010" cont="1"/>
    </junction>
    <junction id="J5" type="priority" x="-7.90" y="-33.56" incLanes="E5_0" intLanes=":J5_0_0" shape="-11.10,-33.53 -7.90,-33.56 -8.16,-36.75 -9.81,-36.28 -10.38,-35.82 -10.79,-35.21 -11.03,-34.44">
        <request index="0" response="0" foes="0" cont="0"/>
    </junction>
    <junction id="J6" type="priority" x="90.78" y="-41.60" incLanes="E7_0 E6_0" intLanes=":J6_0_0 :J6_2_0" shape="94.57,-41.68 94.50,-44.88 83.53,-44.22 83.79,-41.03 85.88,-40.78 86.59,-40.31 87.09,-39.62 87.38,-38.70 87.44,-37.55 90.64,-37.44 91.14,-39.76 91.69,-40.58 92.45,-41.17 93.41,-41.54">
        <request index="0" response="00" foes="10" cont="0"/>
        <request index="1" response="01" foes="01" cont="1"/>
    </junction>
    <junction id="J7" type="priority" x="174.55" y="12.91" incLanes="E8_0" intLanes=":J7_0_0" shape="174.55,9.73 171.35,9.73 171.37,12.93 173.14,12.56 173.75,12.12 174.20,11.50 174.46,10.70">
        <request index="0" response="0" foes="0" cont="0"/>
    </junction>
    <junction id="J8" type="dead_end" x="174.55" y="-43.32" incLanes="E10_0 E9_0" intLanes="" shape="171.35,-41.75 174.55,-41.75 174.02,-44.39 173.36,-45.30 172.43,-45.95 171.24,-46.32 169.78,-46.42 169.85,-43.22 170.68,-43.07 170.98,-42.87 171.18,-42.58 171.31,-42.21"/>

    <junction id=":J4_4_0" type="internal" x="88.63" y="13.31" incLanes=":J4_3_0 E4_0" intLanes=":J4_1_0"/>
    <junction id=":J6_2_0" type="internal" x="90.30" y="-41.42" incLanes=":J6_1_0 E7_0" intLanes=":J6_0_0"/>

    <connection from="E1" to="E3" fromLane="0" toLane="0" via=":J2_0_0" dir="r" state="M"/>
    <connection from="E2" to="E5" fromLane="0" toLane="0" via=":J3_0_0" dir="s" state="M"/>
    <connection from="E2" to="E4" fromLane="0" toLane="0" via=":J3_1_0" dir="l" state="M"/>
    <connection from="E3" to="E6" fromLane="0" toLane="0" via=":J4_2_0" dir="s" state="m"/>
    <connection from="E3" to="E8" fromLane="0" toLane="0" via=":J4_3_0" dir="l" state="m"/>
    <connection from="E4" to="E6" fromLane="0" toLane="0" via=":J4_0_0" dir="r" state="M"/>
    <connection from="E4" to="E8" fromLane="0" toLane="0" via=":J4_1_0" dir="s" state="M"/>
    <connection from="E5" to="E7" fromLane="0" toLane="0" via=":J5_0_0" dir="l" state="M"/>
    <connection from="E6" to="E9" fromLane="0" toLane="0" via=":J6_1_0" dir="l" state="m"/>
    <connection from="E7" to="E9" fromLane="0" toLane="0" via=":J6_0_0" dir="s" state="M"/>
    <connection from="E8" to="E10" fromLane="0" toLane="0" via=":J7_0_0" dir="r" state="M"/>

    <connection from=":J2_0" to="E3" fromLane="0" toLane="0" dir="r" state="M"/>
    <connection from=":J3_0" to="E5" fromLane="0" toLane="0" dir="s" state="M"/>
    <connection from=":J3_1" to="E4" fromLane="0" toLane="0" dir="l" state="M"/>
    <connection from=":J4_0" to="E6" fromLane="0" toLane="0" dir="r" state="M"/>
    <connection from=":J4_1" to="E8" fromLane="0" toLane="0" dir="s" state="M"/>
    <connection from=":J4_2" to="E6" fromLane="0" toLane="0" dir="s" state="M"/>
    <connection from=":J4_3" to="E8" fromLane="0" toLane="0" via=":J4_4_0" dir="l" state="m"/>
    <connection from=":J4_4" to="E8" fromLane="0" toLane="0" dir="l" state="M"/>
    <connection from=":J5_0" to="E7" fromLane="0" toLane="0" dir="l" state="M"/>
    <connection from=":J6_0" to="E9" fromLane="0" toLane="0" dir="s" state="M"/>
    <connection from=":J6_1" to="E9" fromLane="0" toLane="0" via=":J6_2_0" dir="l" state="m"/>
    <connection from=":J6_2" to="E9" fromLane="0" toLane="0" dir="l" state="M"/>
    <connection from=":J7_0" to="E10" fromLane="0" toLane="0" dir="r" state="M"/>

</net>
